
Spectre (R) Circuit Simulator
Version 18.1.0.421.isr9 32bit -- 17 Jul 2019
Copyright (C) 1989-2019 Cadence Design Systems, Inc. All rights reserved worldwide. Cadence and Spectre are registered trademarks of Cadence Design Systems, Inc. All others are the property of their respective holders.

Includes RSA BSAFE(R) Cryptographic or Security Protocol Software from RSA Security, Inc.

User: skumar55   Host: zach-127-08.engr.tamu.edu   HostID: 7D0A0ECA   PID: 7304
Memory  available: 1.4038 GB  physical: 16.4833 GB
Linux   : CentOS Linux release 7.7.1908 (Core)
CPU Type: Intel(R) Core(TM) i7-8700T CPU @ 2.40GHz
        Socket: Processors [Frequency] (Hyperthreaded Processor)
        0:       0 [2364.8] (  6 ),  1 [1718.1] (  7 ),  2 [2032.3] (  8 )
                 3 [3406.8] (  9 ),  4 [3349.8] ( 10 ),  5 [2129.3] ( 11 )
        
System load averages (1min, 5min, 15min) : 0.4 %, 1.2 %, 1.2 %
Hyperthreading is enabled


Simulating `simcap.spi' on zach-127-08.engr.tamu.edu at 5:03:36 PM, Fri Feb 7, 2020 (process id: 7304).
Current working directory: /home/ugrads/s/skumar55/cadence/cellcharacs/nand2
Command line:
    /opt/coe/cadence/SPECTRE181/tools.lnx86/bin/spectre simcap.spi

Loading /opt/coe/cadence/SPECTRE181/tools.lnx86/cmi/lib/5.0/libinfineon_sh.so ...
Loading /opt/coe/cadence/SPECTRE181/tools.lnx86/cmi/lib/5.0/libphilips_o_sh.so ...
Loading /opt/coe/cadence/SPECTRE181/tools.lnx86/cmi/lib/5.0/libphilips_sh.so ...
Loading /opt/coe/cadence/SPECTRE181/tools.lnx86/cmi/lib/5.0/libsparam_sh.so ...
Loading /opt/coe/cadence/SPECTRE181/tools.lnx86/cmi/lib/5.0/libstmodels_sh.so ...
Reading file:  /home/ugrads/s/skumar55/cadence/cellcharacs/nand2/simcap.spi
Reading file:  /opt/coe/cadence/SPECTRE181/tools.lnx86/spectre/etc/configs/mapsubckt.cfg
Reading file:  /opt/coe/cadence/SPECTRE181/tools.lnx86/spectre/etc/configs/spectre.cfg
Reading file:  /home/ugrads/s/skumar55/cadence/cellcharacs/model18.spi
Reading file:  /home/ugrads/s/skumar55/cadence/cellcharacs/cell18.spi
Time for NDB Parsing: CPU = 67.15 ms, elapsed = 164.195 ms.
Time accumulated: CPU = 103.606 ms, elapsed = 164.199 ms.
Peak resident memory used = 41.6 Mbytes.

Time for Elaboration: CPU = 16.731 ms, elapsed = 16.732 ms.
Time accumulated: CPU = 120.557 ms, elapsed = 181.166 ms.
Peak resident memory used = 46.5 Mbytes.


Time for EDB Visiting: CPU = 648 us, elapsed = 651.836 us.
Time accumulated: CPU = 121.366 ms, elapsed = 182.001 ms.
Peak resident memory used = 47.1 Mbytes.


Warning from spectre during initial setup.
    WARNING (CMI-2426): X1.M2: `Pdiblc2' = -8.75063e-06 is negative.


Global user options:

Scoped user options:

Circuit inventory:
              nodes 6
            bsim3v3 4     
           resistor 1     
            vsource 3     

Analysis and control statement inventory:
                 ac 1     

Output statements:
             .probe 0     
           .measure 0     
               save 1     


Notice from spectre during initial setup.
    1 resistor is changed to resistance form because its value is less than 'rthresh'.
Warning from spectre during initial setup.
    WARNING (CMI-2426): X1.M2: `Pdiblc2' = -8.75063e-06 is negative.

Time for parsing: CPU = 17.079 ms, elapsed = 19.779 ms.
Time accumulated: CPU = 138.583 ms, elapsed = 201.932 ms.
Peak resident memory used = 49 Mbytes.

~~~~~~~~~~~~~~~~~~~~~~
Pre-Simulation Summary
~~~~~~~~~~~~~~~~~~~~~~
~~~~~~~~~~~~~~~~~~~~~~

*******************************************
AC Analysis `Freq': freq = (10 Hz -> 1 GHz)
*******************************************
DC simulation time: CPU = 2.043 ms, elapsed = 1.01995 ms.

Opening the PSF file simcap.raw/Freq.ac ...
......9......8......7......6......5......4......3......2......1......0
Accumulated DC solution time =            0 s.
Intrinsic ac analysis time =              0 s.
Total time required for ac analysis `Freq': CPU = 16.74 ms, elapsed = 10.726 ms.
Time accumulated: CPU = 172.984 ms, elapsed = 224.802 ms.
Peak resident memory used = 50.5 Mbytes.


Aggregate audit (5:03:36 PM, Fri Feb 7, 2020):
Time used: CPU = 180 ms, elapsed = 230 ms, util. = 78.4%.
Time spent in licensing: elapsed = 23.3 ms, percentage of total = 10.1%.
Peak memory used = 51.1 Mbytes.
Simulation started at: 5:03:36 PM, Fri Feb 7, 2020, ended at: 5:03:36 PM, Fri Feb 7, 2020, with elapsed time (wall clock): 230 ms.
spectre completes with 0 errors, 2 warnings, and 2 notices.
