
Spectre (R) Circuit Simulator
Version 18.1.0.421.isr9 32bit -- 17 Jul 2019
Copyright (C) 1989-2019 Cadence Design Systems, Inc. All rights reserved worldwide. Cadence and Spectre are registered trademarks of Cadence Design Systems, Inc. All others are the property of their respective holders.

Includes RSA BSAFE(R) Cryptographic or Security Protocol Software from RSA Security, Inc.

User: skumar55   Host: zach-127-08.engr.tamu.edu   HostID: 7D0A0ECA   PID: 9544
Memory  available: 1.4016 GB  physical: 16.4833 GB
Linux   : CentOS Linux release 7.7.1908 (Core)
CPU Type: Intel(R) Core(TM) i7-8700T CPU @ 2.40GHz
        Socket: Processors [Frequency] (Hyperthreaded Processor)
        0:       0 [2635.4] (  6 ),  1 [2887.2] (  7 ),  2 [2889.7] (  8 )
                 3 [3388.3] (  9 ),  4 [3140.6] ( 10 ),  5 [2781.6] ( 11 )
        
System load averages (1min, 5min, 15min) : 1.5 %, 1.3 %, 1.2 %
Hyperthreading is enabled


Simulating `simcap.spi' on zach-127-08.engr.tamu.edu at 5:10:18 PM, Fri Feb 7, 2020 (process id: 9544).
Current working directory: /home/ugrads/s/skumar55/cadence/cellcharacs/inverter
Command line:
    /opt/coe/cadence/SPECTRE181/tools.lnx86/bin/spectre simcap.spi

Loading /opt/coe/cadence/SPECTRE181/tools.lnx86/cmi/lib/5.0/libinfineon_sh.so ...
Loading /opt/coe/cadence/SPECTRE181/tools.lnx86/cmi/lib/5.0/libphilips_o_sh.so ...
Loading /opt/coe/cadence/SPECTRE181/tools.lnx86/cmi/lib/5.0/libphilips_sh.so ...
Loading /opt/coe/cadence/SPECTRE181/tools.lnx86/cmi/lib/5.0/libsparam_sh.so ...
Loading /opt/coe/cadence/SPECTRE181/tools.lnx86/cmi/lib/5.0/libstmodels_sh.so ...
Reading file:  /home/ugrads/s/skumar55/cadence/cellcharacs/inverter/simcap.spi
Reading file:  /opt/coe/cadence/SPECTRE181/tools.lnx86/spectre/etc/configs/mapsubckt.cfg
Reading file:  /opt/coe/cadence/SPECTRE181/tools.lnx86/spectre/etc/configs/spectre.cfg
Reading file:  /home/ugrads/s/skumar55/cadence/cellcharacs/model18.spi
Reading file:  /home/ugrads/s/skumar55/cadence/cellcharacs/cell18.spi
Time for NDB Parsing: CPU = 81.185 ms, elapsed = 202.778 ms.
Time accumulated: CPU = 111.209 ms, elapsed = 202.783 ms.
Peak resident memory used = 41.6 Mbytes.

Time for Elaboration: CPU = 12.505 ms, elapsed = 12.7749 ms.
Time accumulated: CPU = 123.835 ms, elapsed = 215.696 ms.
Peak resident memory used = 46.5 Mbytes.


Time for EDB Visiting: CPU = 668 us, elapsed = 673.056 us.
Time accumulated: CPU = 124.664 ms, elapsed = 216.547 ms.
Peak resident memory used = 47.1 Mbytes.


Warning from spectre during initial setup.
    WARNING (CMI-2426): X1.M1: `Pdiblc2' = -8.75063e-06 is negative.


Global user options:

Scoped user options:

Circuit inventory:
              nodes 5
            bsim3v3 2     
           resistor 1     
            vsource 3     

Analysis and control statement inventory:
                 ac 1     

Output statements:
             .probe 0     
           .measure 0     
               save 1     


Notice from spectre during initial setup.
    1 resistor is changed to resistance form because its value is less than 'rthresh'.
Warning from spectre during initial setup.
    WARNING (CMI-2426): X1.M1: `Pdiblc2' = -8.75063e-06 is negative.

Time for parsing: CPU = 41.997 ms, elapsed = 63.026 ms.
Time accumulated: CPU = 166.799 ms, elapsed = 279.725 ms.
Peak resident memory used = 50.2 Mbytes.

~~~~~~~~~~~~~~~~~~~~~~
Pre-Simulation Summary
~~~~~~~~~~~~~~~~~~~~~~
~~~~~~~~~~~~~~~~~~~~~~

*******************************************
AC Analysis `Freq': freq = (10 Hz -> 1 GHz)
*******************************************
DC simulation time: CPU = 543 us, elapsed = 271.082 us.

Opening the PSF file simcap.raw/Freq.ac ...
......9......8......7......6......5......4......3......2......1......0
Accumulated DC solution time =            0 s.
Intrinsic ac analysis time =              0 s.
Total time required for ac analysis `Freq': CPU = 47.236 ms, elapsed = 45.0509 ms.
Time accumulated: CPU = 224.04 ms, elapsed = 331.879 ms.
Peak resident memory used = 52.3 Mbytes.


Aggregate audit (5:10:19 PM, Fri Feb 7, 2020):
Time used: CPU = 228 ms, elapsed = 335 ms, util. = 68.2%.
Time spent in licensing: elapsed = 32.3 ms, percentage of total = 9.64%.
Peak memory used = 52.9 Mbytes.
Simulation started at: 5:10:18 PM, Fri Feb 7, 2020, ended at: 5:10:19 PM, Fri Feb 7, 2020, with elapsed time (wall clock): 335 ms.
spectre completes with 0 errors, 2 warnings, and 2 notices.
