
Spectre (R) Circuit Simulator
Version 18.1.0.421.isr9 32bit -- 17 Jul 2019
Copyright (C) 1989-2019 Cadence Design Systems, Inc. All rights reserved worldwide. Cadence and Spectre are registered trademarks of Cadence Design Systems, Inc. All others are the property of their respective holders.

Includes RSA BSAFE(R) Cryptographic or Security Protocol Software from RSA Security, Inc.

User: skumar55   Host: zach-127-08.engr.tamu.edu   HostID: 7D0A0ECA   PID: 9833
Memory  available: 1.4549 GB  physical: 16.4833 GB
Linux   : CentOS Linux release 7.7.1908 (Core)
CPU Type: Intel(R) Core(TM) i7-8700T CPU @ 2.40GHz
        Socket: Processors [Frequency] (Hyperthreaded Processor)
        0:       0 [3964.6] (  6 ),  1 [3912.2] (  7 ),  2 [3916.7] (  8 )
                 3 [2624.3] (  9 ),  4 [3821.8] ( 10 ),  5 [3900.1] ( 11 )
        
System load averages (1min, 5min, 15min) : 0.0 %, 0.5 %, 1.0 %
Hyperthreading is enabled


Simulating `inverter.spi' on zach-127-08.engr.tamu.edu at 2:19:22 PM, Fri Feb 7, 2020 (process id: 9833).
Current working directory: /home/ugrads/s/skumar55/cadence/cellcharacs
Command line:
    /opt/coe/cadence/SPECTRE181/tools.lnx86/bin/spectre inverter.spi

Loading /opt/coe/cadence/SPECTRE181/tools.lnx86/cmi/lib/5.0/libinfineon_sh.so ...
Loading /opt/coe/cadence/SPECTRE181/tools.lnx86/cmi/lib/5.0/libphilips_o_sh.so ...
Loading /opt/coe/cadence/SPECTRE181/tools.lnx86/cmi/lib/5.0/libphilips_sh.so ...
Loading /opt/coe/cadence/SPECTRE181/tools.lnx86/cmi/lib/5.0/libsparam_sh.so ...
Loading /opt/coe/cadence/SPECTRE181/tools.lnx86/cmi/lib/5.0/libstmodels_sh.so ...
Reading file:  /home/ugrads/s/skumar55/cadence/cellcharacs/inverter.spi
Reading file:  /opt/coe/cadence/SPECTRE181/tools.lnx86/spectre/etc/configs/mapsubckt.cfg
Reading file:  /opt/coe/cadence/SPECTRE181/tools.lnx86/spectre/etc/configs/spectre.cfg

Error found by spectre during circuit read-in.
    ERROR (SFE-868): "inverter.spi" 4: Can not open input file `/home/ugrads/s/skumar55/cadence/cellcharacs/model18.spi'. No such file or directory. Ensure that the file exists and the path to the file is correct. Otherwise, use the -I<path> command-line option to specify the path to the file.
    ERROR (SFE-868): "inverter.spi" 5: Can not open input file `/home/ugrads/s/skumar55/cadence/cellcharacs/cell18.spi'. No such file or directory. Ensure that the file exists and the path to the file is correct. Otherwise, use the -I<path> command-line option to specify the path to the file.

Time for NDB Parsing: CPU = 104.955 ms, elapsed = 227.396 ms.
Time accumulated: CPU = 139.634 ms, elapsed = 227.401 ms.
Peak resident memory used = 41 Mbytes.


Aggregate audit (2:19:23 PM, Fri Feb 7, 2020):
Time used: CPU = 140 ms, elapsed = 228 ms, util. = 61.4%.
Time spent in licensing: elapsed = 93.1 ms, percentage of total = 40.9%.
Peak memory used = 41.2 Mbytes.
Simulation started at: 2:19:22 PM, Fri Feb 7, 2020, ended at: 2:19:23 PM, Fri Feb 7, 2020, with elapsed time (wall clock): 228 ms.
spectre completes with 2 errors, 0 warnings, and 0 notices.
spectre terminated prematurely due to fatal error.
